3B0T.A
  MOE2019           3D
GENE REGULATION
 72 74  0  0  1  0  0  0  0  0999 V2000
  -14.1424   -8.3404   30.3753 C   0  0  3  0  0  0  0  0  0  0  0  0
  -14.9051   -7.9677   29.7035 H   0  0  0  0  0  0  0  0  0  0  0  0
  -13.1487   -9.1149   29.6526 O   0  0  0  0  0  0  0  0  0  0  0  0
  -12.3318   -9.1472   30.2093 H   0  0  0  0  0  0  0  0  0  0  0  0
  -14.7245   -9.3120   31.4087 C   0  0  0  0  0  0  0  0  0  0  0  0
  -13.9355   -9.6497   32.0794 H   0  0  0  0  0  0  0  0  0  0  0  0
  -15.1605  -10.1722   30.9041 H   0  0  0  0  0  0  0  0  0  0  0  0
  -15.8160   -8.5753   32.1926 C   0  0  3  0  0  0  0  0  0  0  0  0
  -16.3069   -9.2844   32.8632 H   0  0  0  0  0  0  0  0  0  0  0  0
  -16.7858   -8.0426   31.3162 O   0  0  0  0  0  0  0  0  0  0  0  0
  -17.3084   -7.3955   31.8292 H   0  0  0  0  0  0  0  0  0  0  0  0
  -15.2067   -7.4233   33.0150 C   0  0  0  0  0  0  0  0  0  0  0  0
  -14.6047   -7.8489   33.8026 H   0  0  0  0  0  0  0  0  0  0  0  0
  -16.0186   -6.8401   33.4274 H   0  0  0  0  0  0  0  0  0  0  0  0
  -14.3110   -6.5308   32.1575 C   0  0  0  0  0  0  0  0  0  0  0  0
  -14.3041   -5.2012   32.4604 C   0  0  0  0  0  0  0  0  0  0  0  0
  -14.9019   -4.8813   33.2702 H   0  0  0  0  0  0  0  0  0  0  0  0
  -13.5862   -4.1387   31.7650 C   0  0  0  0  0  0  0  0  0  0  0  0
  -13.1934   -4.3972   30.8183 H   0  0  0  0  0  0  0  0  0  0  0  0
  -13.4243   -2.8729   32.2286 C   0  0  0  0  0  0  0  0  0  0  0  0
  -13.9494   -2.3398   33.5678 C   0  0  0  0  0  0  0  0  0  0  0  0
  -14.4128   -3.1056   34.1665 H   0  0  0  0  0  0  0  0  0  0  0  0
  -14.6307   -1.5308   33.3625 H   0  0  0  0  0  0  0  0  0  0  0  0
  -13.4868   -7.1799   31.1321 C   0  0  0  0  0  0  0  0  0  0  0  0
  -12.7684   -1.7688   34.3876 C   0  0  0  0  0  0  0  0  0  0  0  0
  -12.0946   -2.5795   34.6539 H   0  0  0  0  0  0  0  0  0  0  0  0
  -13.1519   -1.3274   35.3075 H   0  0  0  0  0  0  0  0  0  0  0  0
  -12.0373   -0.6811   33.5665 C   0  0  0  0  0  0  0  0  0  0  0  0
  -11.1945   -0.3022   34.1443 H   0  0  0  0  0  0  0  0  0  0  0  0
  -12.7276    0.1443   33.3860 H   0  0  0  0  0  0  0  0  0  0  0  0
  -11.5274   -1.2274   32.2196 C   0  0  3  0  0  0  0  0  0  0  0  0
  -12.7499   -1.7501   31.4456 C   0  0  3  0  0  0  0  0  0  0  0  0
  -13.4779   -0.9555   31.3296 H   0  0  0  0  0  0  0  0  0  0  0  0
  -12.1695   -2.0474   30.0581 C   0  0  0  0  0  0  0  0  0  0  0  0
  -12.9449   -2.0568   29.2915 H   0  0  0  0  0  0  0  0  0  0  0  0
  -11.6303   -2.9920   30.0729 H   0  0  0  0  0  0  0  0  0  0  0  0
  -11.1680   -0.8796   29.8659 C   0  0  0  0  0  0  0  0  0  0  0  0
  -11.5316   -0.1797   29.1131 H   0  0  0  0  0  0  0  0  0  0  0  0
  -10.2076   -1.2836   29.5412 H   0  0  0  0  0  0  0  0  0  0  0  0
  -11.0161   -0.1576   31.2329 C   0  0  3  0  0  0  0  0  0  0  0  0
  -11.7673    0.6333   31.2479 H   0  0  0  0  0  0  0  0  0  0  0  0
  -10.4524   -2.3196   32.4876 C   0  0  0  0  0  0  0  0  0  0  0  0
  -10.8913   -3.2222   32.9092 H   0  0  0  0  0  0  0  0  0  0  0  0
   -9.6998   -1.9393   33.1776 H   0  0  0  0  0  0  0  0  0  0  0  0
   -9.9408   -2.5988   31.5692 H   0  0  0  0  0  0  0  0  0  0  0  0
  -12.2201   -6.7795   30.8793 C   0  0  0  0  0  0  0  0  0  0  0  0
  -11.7525   -6.0065   31.4335 H   0  0  0  0  0  0  0  0  0  0  0  0
  -11.6151   -7.2119   30.1280 H   0  0  0  0  0  0  0  0  0  0  0  0
   -9.6635    0.5499   31.5109 C   0  0  3  0  0  0  0  0  0  0  0  0
   -9.6741    0.8885   32.5478 H   0  0  0  0  0  0  0  0  0  0  0  0
   -9.5313    1.7724   30.5892 C   0  0  0  0  0  0  0  0  0  0  0  0
   -9.3803    1.4401   29.5619 H   0  0  0  0  0  0  0  0  0  0  0  0
   -8.6872    2.3869   30.8996 H   0  0  0  0  0  0  0  0  0  0  0  0
  -10.4300    2.3857   30.6446 H   0  0  0  0  0  0  0  0  0  0  0  0
   -8.5531   -0.3171   31.3046 O   0  0  0  0  0  0  0  0  0  0  0  0
   -7.2966    0.1845   31.7454 C   0  0  0  0  0  0  0  0  0  0  0  0
   -7.3673    0.5300   32.7775 H   0  0  0  0  0  0  0  0  0  0  0  0
   -6.9745    1.0052   31.1046 H   0  0  0  0  0  0  0  0  0  0  0  0
   -6.2788   -0.9542   31.6502 C   0  0  0  0  0  0  0  0  0  0  0  0
   -6.3172   -1.3513   30.6354 H   0  0  0  0  0  0  0  0  0  0  0  0
   -6.5936   -1.7384   32.3373 H   0  0  0  0  0  0  0  0  0  0  0  0
   -4.8270   -0.5733   31.9823 C   0  0  0  0  0  0  0  0  0  0  0  0
   -4.6416   -0.1287   33.4307 C   0  0  0  0  0  0  0  0  0  0  0  0
   -4.9049   -0.9430   34.1054 H   0  0  0  0  0  0  0  0  0  0  0  0
   -5.2674    0.7327   33.6549 H   0  0  0  0  0  0  0  0  0  0  0  0
   -3.6020    0.1541   33.5952 H   0  0  0  0  0  0  0  0  0  0  0  0
   -3.9034   -1.7563   31.6889 C   0  0  0  0  0  0  0  0  0  0  0  0
   -4.1931   -2.6149   32.2946 H   0  0  0  0  0  0  0  0  0  0  0  0
   -2.8736   -1.4854   31.9213 H   0  0  0  0  0  0  0  0  0  0  0  0
   -3.9657   -2.0223   30.6333 H   0  0  0  0  0  0  0  0  0  0  0  0
   -4.3959    0.4692   31.1564 O   0  0  0  0  0  0  0  0  0  0  0  0
   -4.6715    1.3157   31.5591 H   0  0  0  0  0  0  0  0  0  0  0  0
  1  2  1  0  0  0  0
  1  3  1  0  0  0  0
  1  5  1  0  0  0  0
  1 24  1  0  0  0  0
  3  4  1  0  0  0  0
  5  6  1  0  0  0  0
  5  7  1  0  0  0  0
  5  8  1  0  0  0  0
  8  9  1  0  0  0  0
  8 10  1  0  0  0  0
  8 12  1  0  0  0  0
 10 11  1  0  0  0  0
 12 13  1  0  0  0  0
 12 14  1  0  0  0  0
 12 15  1  0  0  0  0
 15 16  2  0  0  0  0
 15 24  1  0  0  0  0
 16 17  1  0  0  0  0
 16 18  1  0  0  0  0
 18 19  1  0  0  0  0
 18 20  2  0  0  0  0
 20 21  1  0  0  0  0
 20 32  1  0  0  0  0
 21 22  1  0  0  0  0
 21 23  1  0  0  0  0
 21 25  1  0  0  0  0
 24 46  2  0  0  0  0
 25 26  1  0  0  0  0
 25 27  1  0  0  0  0
 25 28  1  0  0  0  0
 28 29  1  0  0  0  0
 28 30  1  0  0  0  0
 28 31  1  0  0  0  0
 31 32  1  0  0  0  0
 31 40  1  0  0  0  0
 31 42  1  0  0  0  0
 32 33  1  0  0  0  0
 32 34  1  0  0  0  0
 34 35  1  0  0  0  0
 34 36  1  0  0  0  0
 34 37  1  0  0  0  0
 37 38  1  0  0  0  0
 37 39  1  0  0  0  0
 37 40  1  0  0  0  0
 40 41  1  0  0  0  0
 40 49  1  0  0  0  0
 42 43  1  0  0  0  0
 42 44  1  0  0  0  0
 42 45  1  0  0  0  0
 46 47  1  0  0  0  0
 46 48  1  0  0  0  0
 49 50  1  0  0  0  0
 49 51  1  0  0  0  0
 49 55  1  0  0  0  0
 51 52  1  0  0  0  0
 51 53  1  0  0  0  0
 51 54  1  0  0  0  0
 55 56  1  0  0  0  0
 56 57  1  0  0  0  0
 56 58  1  0  0  0  0
 56 59  1  0  0  0  0
 59 60  1  0  0  0  0
 59 61  1  0  0  0  0
 59 62  1  0  0  0  0
 62 63  1  0  0  0  0
 62 67  1  0  0  0  0
 62 71  1  0  0  0  0
 63 64  1  0  0  0  0
 63 65  1  0  0  0  0
 63 66  1  0  0  0  0
 67 68  1  0  0  0  0
 67 69  1  0  0  0  0
 67 70  1  0  0  0  0
 71 72  1  0  0  0  0
M  END
$$$$
